[General]

[Config StaticNetwork]
network = RAFT_Network
sim-time-limit = 200s
repeat = 20

**.servers_number = 5
**.clients_number = 5
**.client[*].requestMsgTimeout = normal(7.0s, 1.5s)
**.cloud.propDelay = uniform(0.1s, 0.3s)
**.server[*].electionTimeout = normal(5.0s, 1s)
**.server[*].heartbeatTimeout = 2s
**.server[*].appendEntriesTimeout = 4.5s
**.server[*].checkFailureTimeout = 1s
**.server[*].checkRecoveryTimeout = 1s
**.failureProbability = ${1}
**.recoveryProbability = ${7}
**.messageLossProbability = ${0}

