[General]

[Config StaticNetwork]
network = RAFT_Network
sim-time-limit = 3000s
repeat = 3

**.servers_number = ${3, 5, 9}
**.clients_number = ${5}
**.client[*].requestMsgTimeout = ${normal(7.0s, 1.5s)}
**.cloud.propDelay = ${uniform(0.1s, 0.3s)}
**.server[*].electionTimeout = ${normal(5.0s, 1s), 6s}
**.server[*].heartbeatTimeout = ${2s}
**.server[*].appendEntriesTimeout = ${4.5s}
**.server[*].checkFailureTimeout = ${5s, 10s, 25s}
**.server[*].checkRecoveryTimeout = ${1s}
**.failureProbability = ${1, 5}
**.recoveryProbability = ${7}
**.messageLossProbability = ${0, 2}

